generator_controller_example/Test_GLM_4Node_Test.glm
//IEEE 4-node file - generated 2014-05-29 22:11:31
//Generated with prefix 'MarketTest'
//Contained 500 houses - [184 156 160] in Weather Region 1
//Run with mininum_timestep=60 and recorders set at 60
//Market ran with period=300, price cap=100.00, initial_price=50.00, initial_std_dev=10.00
//       and capacity reference bid=100.00 and max capacity reference quantity=0.00
//Controllers on all devices
//NR Powerflow solver

#set suppress_repeat_messages=0
#set minimum_timestep=60
#set profiler=1
#set randomseed=10
#set pauseatexit=1
#include "water_and_setpoint_schedule_v5.glm";
#include "appliance_schedules.glm";

clock {
	timezone PST+8PDT;
	starttime '2009-01-01 00:00:00';
	stoptime '2009-01-03 00:00:00';
}

module tape;
module climate;
module market;
module residential {
	implicit_enduses NONE;
}
module powerflow {
	solver_method NR;
	NR_iteration_limit 50;
}

class auction {
	double current_price_mean_24h;
	double current_price_stdev_24h;
}

object climate {
	name "WeatherData";
	tmyfile "WA-Seattle.tmy2";
	interpolate QUADRATIC;
}

#include "Test_Feeder_Line_Configurations.glm";

object auction {
	name Market_1;
	period 300;
	unit kW;
	special_mode NONE;
	price_cap 100.000000;
	init_price 50.000000;
	init_stdev 10.000000;
	warmup 0;
	capacity_reference_object substation_transformer;
	capacity_reference_property power_out_real;
	capacity_reference_bid_price 100.000000;
	max_capacity_reference_bid_quantity 0.000000;
	curve_log_file "MarketTest_market_bids.csv";
	curve_log_info EXTRA;
	transaction_log_file "MarketTest_log.txt";
	object recorder {
		property "current_market.clearing_price,current_market.clearing_quantity,fixed_price,fixed_quantity";
		interval 60;
		file "MarketTest_marketvalues.csv";
	};
}

///////////////////////////////////////////
// BEGIN: IEEE-4 Feeder - main part
///////////////////////////////////////////

object node {
	name node1;
	phases "ABCN";
	bustype SWING;
	nominal_voltage 7200;
}

object overhead_line {
	name ohl12;
	phases "ABCN";
	from node1;
	to node2;
	length 2000;
	configuration lc300;
}

object node {
	name node2;
	phases "ABCN";
	nominal_voltage 7200;
}

object transformer {
	name substation_transformer;
	phases "ABCN";
	from node2;
	to node3;
	configuration tc400;
}

object node {
	name node3;
	phases "ABCN";
	nominal_voltage 2400;
}

object overhead_line {
	name ohl34;
	phases "ABCN";
	from node3;
	to node4;
	length 2500;
	configuration lc300;
}

object node {
	name node4;
	phases "ABCN";
	nominal_voltage 2400;
}

//Load object - for gen controller objects
object load {
	name gen_control_connect;
	parent node1;
	nominal_voltage 7200.0;
	phases ABCN;
	object recorder {
		property "constant_power_A,constant_power_B,constant_power_C";
		interval 60;
		file "MarketTest_generator_controller.csv";
	};
}

//////////////////////////////////////////////
// BEGIN :Transformer and triplex_nodes
//////////////////////////////////////////////

//Triplex Transformers

object transformer {
	name center_tap_1;
	phases AS;
	from node4;
	to trip_node_AS;
	configuration AS_config;
}

object transformer {
	name center_tap_2;
	phases BS;
	from node4;
	to trip_node_BS;
	configuration BS_config;
}

object transformer {
	name center_tap_3;
	phases CS;
	from node4;
	to trip_node_CS;
	configuration CS_config;
}

//Triplex nodes

object triplex_node {
	name trip_node_AS;
	phases AS;
	nominal_voltage 120;
}

object triplex_node {
	name trip_node_BS;
	phases BS;
	nominal_voltage 120;
}

object triplex_node {
	name trip_node_CS;
	phases CS;
	nominal_voltage 120;
}

//Triplex meters

object triplex_meter {
	name trip_meter_AS;
	phases AS;
	nominal_voltage 120;
}

object triplex_meter {
	name trip_meter_BS;
	phases BS;
	nominal_voltage 120;
}

object triplex_meter {
	name trip_meter_CS;
	phases CS;
	nominal_voltage 120;
}

//Triplex lines

object triplex_line {
	name trip_line_AS;
	phases AS;
	from trip_node_AS;
	to trip_meter_AS;
	length 10;
	configuration triplex_line_configuration_1;
}

object triplex_line {
	name trip_line_BS;
	phases BS;
	from trip_node_BS;
	to trip_meter_BS;
	length 10;
	configuration triplex_line_configuration_1;
}

object triplex_line {
	name trip_line_CS;
	phases CS;
	from trip_node_CS;
	to trip_meter_CS;
	length 10;
	configuration triplex_line_configuration_1;
}

//////////////////////////////////////////////
// END: Pure Powerflow Portions
//////////////////////////////////////////////

/////////////////////////////////////////////
//Generator_controller objects
/////////////////////////////////////////////
object generator_controller {
	parent gen_control_connect;
	name generator_controller_1;
	market Market_1;
	generator_rating 30.00;
	generator_state OFF;
	bid_curve "5 25.00 6 26.00 7 26.5 8 27 9 27.50 10 28 11 28.50 12 29 20 30.0 30 45.00";
	bid_delay 1;
	startup_cost 15.00;
	shutdown_cost 5.00;
	minimum_runtime 35.00 min;
	minimum_downtime 0.00 min;
	amortization_factor 5.00 1/h;
	input_unit_base 1000 kW;
	object recorder {
		property "generator_output,generator_state,capacity_factor";
		interval 60;
		file "MarketTest_gen_controller_1.csv";
	};
}
object generator_controller {
	parent gen_control_connect;
	name generator_controller_2;
	market Market_1;
	generator_rating 30.00;
	generator_state OFF;
	bid_curve "5 25.00 6 26.00 7 26.5 8 27 9 27.50 10 28 11 28.50 12 29 20 30.0 30 45.00";
	bid_delay 1;
	startup_cost 15.00;
	shutdown_cost 5.00;
	minimum_runtime 35.00 min;
	minimum_downtime 0.00 min;
	amortization_factor 5.00 1/h;
	input_unit_base 1000 kW;
	object recorder {
		property "generator_output,generator_state,capacity_factor";
		interval 60;
		file "MarketTest_gen_controller_2.csv";
	};
}
object generator_controller {
	parent gen_control_connect;
	name generator_controller_3;
	market Market_1;
	generator_rating 30.00;
	generator_state OFF;
	bid_curve "5 25.00 6 26.00 7 26.5 8 27 9 27.50 10 28 11 28.50 12 29 20 30.0 30 45.00";
	bid_delay 1;
	startup_cost 15.00;
	shutdown_cost 5.00;
	minimum_runtime 35.00 min;
	minimum_downtime 0.00 min;
	amortization_factor 5.00 1/h;
	input_unit_base 1000 kW;
	object recorder {
		property "generator_output,generator_state,capacity_factor";
		interval 60;
		file "MarketTest_gen_controller_3.csv";
	};
}
object generator_controller {
	parent gen_control_connect;
	name generator_controller_4;
	market Market_1;
	generator_rating 30.00;
	generator_state OFF;
	bid_curve "5 25.00 6 26.00 7 26.5 8 27 9 27.50 10 28 11 28.50 12 29 20 30.0 30 45.00";
	bid_delay 1;
	startup_cost 15.00;
	shutdown_cost 5.00;
	minimum_runtime 35.00 min;
	minimum_downtime 0.00 min;
	amortization_factor 5.00 1/h;
	input_unit_base 1000 kW;
	object recorder {
		property "generator_output,generator_state,capacity_factor";
		interval 60;
		file "MarketTest_gen_controller_4.csv";
	};
}
object generator_controller {
	parent gen_control_connect;
	name generator_controller_5;
	market Market_1;
	generator_rating 30.00;
	generator_state OFF;
	bid_curve "5 25.00 6 26.00 7 26.5 8 27 9 27.50 10 28 11 28.50 12 29 20 30.0 30 45.00";
	bid_delay 1;
	startup_cost 15.00;
	shutdown_cost 5.00;
	minimum_runtime 35.00 min;
	minimum_downtime 0.00 min;
	amortization_factor 5.00 1/h;
	input_unit_base 1000 kW;
	object recorder {
		property "generator_output,generator_state,capacity_factor";
		interval 60;
		file "MarketTest_gen_controller_5.csv";
	};
}
object generator_controller {
	parent gen_control_connect;
	name generator_controller_6;
	market Market_1;
	generator_rating 30.00;
	generator_state OFF;
	bid_curve "5 25.00 6 26.00 7 26.5 8 27 9 27.50 10 28 11 28.50 12 29 20 30.0 30 45.00";
	bid_delay 1;
	startup_cost 15.00;
	shutdown_cost 5.00;
	minimum_runtime 35.00 min;
	minimum_downtime 0.00 min;
	amortization_factor 5.00 1/h;
	input_unit_base 1000 kW;
	object recorder {
		property "generator_output,generator_state,capacity_factor";
		interval 60;
		file "MarketTest_gen_controller_6.csv";
	};
}
object generator_controller {
	parent gen_control_connect;
	name generator_controller_7;
	market Market_1;
	generator_rating 30.00;
	generator_state OFF;
	bid_curve "5 25.00 6 26.00 7 26.5 8 27 9 27.50 10 28 11 28.50 12 29 20 30.0 30 45.00";
	bid_delay 1;
	startup_cost 15.00;
	shutdown_cost 5.00;
	minimum_runtime 35.00 min;
	minimum_downtime 0.00 min;
	amortization_factor 5.00 1/h;
	input_unit_base 1000 kW;
	object recorder {
		property "generator_output,generator_state,capacity_factor";
		interval 60;
		file "MarketTest_gen_controller_7.csv";
	};
}

/////////////////////////////////////////////
//Houses
/////////////////////////////////////////////
object house {
	name house_1;
	parent trip_meter_CS;
	groupid Residential;
	schedule_skew -1076;
	floor_area 349;
	number_of_stories 1;
	ceiling_height 8;
	over_sizing_factor 0.1;
	//Thermal integrity -> Single Family 4
	Rroof 30.86;
	Rwall 14.46;
	Rfloor 22.26;
	glazing_layers 2;
	glass_type 1;
	glazing_treatment 1;
	window_frame 2;
	Rdoors 2.43;
	Rwindows 1.81;
	airchange_per_hour 0.42;
	cooling_COP 3.3;
	air_temperature 69.73;
	mass_temperature 69.73;
	total_thermal_mass_per_floor_area 2.735;
	heating_system_type RESISTANCE;
	cooling_system_type NONE;
	breaker_amps 1000;
	hvac_breaker_rating 1000;
	hvac_power_factor 0.97;
	fan_type ONE_SPEED;
	number_of_doors 2;
	thermostat_deadband 0.001;
	dlc_offset 100;
	cooling_setpoint 68.40;
	heating_setpoint 65.40;
	object controller {
		schedule_skew -1076;
		bid_delay 1;
		name controller_1;
		market Market_1;
		use_override ON;
		override override;
		bid_mode ON;
		control_mode RAMP;
		range_high -0.768;
		range_low -0.005;
		ramp_high -2.846;
		ramp_low -2.846;
		base_setpoint heating5*0.65+59.56;
		period 300;
		average_target current_price_mean_24h;
		standard_deviation_target current_price_stdev_24h;
		target air_temperature;
		setpoint heating_setpoint;
		demand last_heating_load;
		deadband thermostat_deadband;
		total hvac_load;
		load hvac_load;
		state power_state;
	};
	object ZIPload {
		// Unresponsive load
		name house_1_unresp_load;
		schedule_skew -1076;
		base_power unresponsive_loads*0.58;
		heatgain_fraction 0.900;
		power_pf 1.000;
		current_pf 1.000;
		impedance_pf 1.000;
		impedance_fraction 0.200000;
		current_fraction 0.400000;
		power_fraction 0.400000;
	};
	object waterheater {
		schedule_skew 6601;
		heating_element_capacity 3.5 kW;
		tank_setpoint 126.6;
		temperature 132;
		thermostat_deadband 7.2;
		location INSIDE;
		tank_UA 2.1;
		demand large_6*1.04;
		tank_volume 40;
	};
}

object house {
	name house_2;
	parent trip_meter_BS;
	groupid Residential;
	schedule_skew 2235;
	floor_area 369;
	number_of_stories 1;
	ceiling_height 8;
	over_sizing_factor 0.1;
	//Thermal integrity -> Mobile Home 3
	Rroof 21.54;
	Rwall 12.18;
	Rfloor 17.72;
	glazing_layers 2;
	glass_type 2;
	glazing_treatment 1;
	window_frame 2;
	Rdoors 2.62;
	Rwindows 1.81;
	airchange_per_hour 0.86;
	cooling_COP 2.6;
	air_temperature 69.59;
	mass_temperature 69.59;
	total_thermal_mass_per_floor_area 3.951;
	heating_system_type RESISTANCE;
	cooling_system_type NONE;
	breaker_amps 1000;
	hvac_breaker_rating 1000;
	hvac_power_factor 0.97;
	fan_type ONE_SPEED;
	number_of_doors 2;
	thermostat_deadband 0.001;
	dlc_offset 100;
	cooling_setpoint 83.07;
	heating_setpoint 80.07;
	object controller {
		schedule_skew 2235;
		bid_delay 1;
		name controller_2;
		market Market_1;
		use_override ON;
		override override;
		bid_mode ON;
		control_mode RAMP;
		range_high -2.890;
		range_low -0.005;
		ramp_high -2.422;
		ramp_low -2.422;
		base_setpoint heating2*1.43+71.02;
		period 300;
		average_target current_price_mean_24h;
		standard_deviation_target current_price_stdev_24h;
		target air_temperature;
		setpoint heating_setpoint;
		demand last_heating_load;
		deadband thermostat_deadband;
		total hvac_load;
		load hvac_load;
		state power_state;
	};
	object ZIPload {
		// Unresponsive load
		name house_2_unresp_load;
		schedule_skew 2235;
		base_power unresponsive_loads*0.43;
		heatgain_fraction 0.900;
		power_pf 1.000;
		current_pf 1.000;
		impedance_pf 1.000;
		impedance_fraction 0.200000;
		current_fraction 0.400000;
		power_fraction 0.400000;
	};
}

object house {
	name house_3;
	parent trip_meter_CS;
	groupid Residential;
	schedule_skew 4991;
	floor_area 3934;
	number_of_stories 1;
	ceiling_height 8;
	over_sizing_factor 0.1;
	//Thermal integrity -> Single Family 5
	Rroof 27.32;
	Rwall 18.43;
	Rfloor 19.66;
	glazing_layers 2;
	glass_type 1;
	glazing_treatment 1;
	window_frame 2;
	Rdoors 2.53;
	Rwindows 1.81;
	airchange_per_hour 0.41;
	cooling_COP 3.2;
	air_temperature 70.64;
	mass_temperature 70.64;
	total_thermal_mass_per_floor_area 2.720;
	heating_system_type RESISTANCE;
	cooling_system_type NONE;
	breaker_amps 1000;
	hvac_breaker_rating 1000;
	hvac_power_factor 0.97;
	fan_type ONE_SPEED;
	number_of_doors 2;
	thermostat_deadband 0.001;
	dlc_offset 100;
	cooling_setpoint 66.87;
	heating_setpoint 63.87;
	object controller {
		schedule_skew 4991;
		bid_delay 1;
		name controller_3;
		market Market_1;
		use_override ON;
		override override;
		bid_mode ON;
		control_mode RAMP;
		range_high -2.924;
		range_low -0.005;
		ramp_high -2.415;
		ramp_low -2.415;
		base_setpoint heating1*0.36+58.72;
		period 300;
		average_target current_price_mean_24h;
		standard_deviation_target current_price_stdev_24h;
		target air_temperature;
		setpoint heating_setpoint;
		demand last_heating_load;
		deadband thermostat_deadband;
		total hvac_load;
		load hvac_load;
		state power_state;
	};
	object ZIPload {
		// Unresponsive load
		name house_3_unresp_load;
		schedule_skew 4991;
		base_power unresponsive_loads*1.59;
		heatgain_fraction 0.900;
		power_pf 1.000;
		current_pf 1.000;
		impedance_pf 1.000;
		impedance_fraction 0.200000;
		current_fraction 0.400000;
		power_fraction 0.400000;
	};
}

object house {
	name house_4;
	parent trip_meter_AS;
	groupid Residential;
	schedule_skew 1107;
	floor_area 3820;
	number_of_stories 1;
	ceiling_height 8;
	over_sizing_factor 0.1;
	//Thermal integrity -> Apartment 3
	Rroof 27.50;
	Rwall 13.60;
	Rfloor 13.93;
	glazing_layers 2;
	glass_type 2;
	glazing_treatment 3;
	window_frame 4;
	Rdoors 6.44;
	Rwindows 1.81;
	airchange_per_hour 0.11;
	cooling_COP 3.0;
	air_temperature 68.68;
	mass_temperature 68.68;
	total_thermal_mass_per_floor_area 2.577;
	heating_system_type RESISTANCE;
	cooling_system_type NONE;
	breaker_amps 1000;
	hvac_breaker_rating 1000;
	hvac_power_factor 0.97;
	fan_type ONE_SPEED;
	number_of_doors 2;
	thermostat_deadband 0.001;
	dlc_offset 100;
	cooling_setpoint 82.78;
	heating_setpoint 79.78;
	object controller {
		schedule_skew 1107;
		bid_delay 1;
		name controller_4;
		market Market_1;
		use_override ON;
		override override;
		bid_mode ON;
		control_mode RAMP;
		range_high -2.462;
		range_low -0.005;
		ramp_high -2.508;
		ramp_low -2.508;
		base_setpoint heating5*0.35+77.21;
		period 300;
		average_target current_price_mean_24h;
		standard_deviation_target current_price_stdev_24h;
		target air_temperature;
		setpoint heating_setpoint;
		demand last_heating_load;
		deadband thermostat_deadband;
		total hvac_load;
		load hvac_load;
		state power_state;
	};
	object ZIPload {
		// Unresponsive load
		name house_4_unresp_load;
		schedule_skew 1107;
		base_power unresponsive_loads*1.44;
		heatgain_fraction 0.900;
		power_pf 1.000;
		current_pf 1.000;
		impedance_pf 1.000;
		impedance_fraction 0.200000;
		current_fraction 0.400000;
		power_fraction 0.400000;
	};
	object waterheater {
		schedule_skew -1563;
		heating_element_capacity 3.5 kW;
		tank_setpoint 125.1;
		temperature 132;
		thermostat_deadband 4.8;
		location INSIDE;
		tank_UA 2.0;
		demand large_4*0.98;
		tank_volume 60;
	};
}

object house {
	name house_5;
	parent trip_meter_AS;
	groupid Residential;
	schedule_skew 2001;
	floor_area 374;
	number_of_stories 1;
	ceiling_height 8;
	over_sizing_factor 0.1;
	//Thermal integrity -> Single Family 2
	Rroof 16.22;
	Rwall 12.33;
	Rfloor 13.53;
	glazing_layers 2;
	glass_type 1;
	glazing_treatment 1;
	window_frame 1;
	Rdoors 2.53;
	Rwindows 1.81;
	airchange_per_hour 0.61;
	cooling_COP 2.8;
	air_temperature 70.63;
	mass_temperature 70.63;
	total_thermal_mass_per_floor_area 3.947;
	heating_system_type RESISTANCE;
	cooling_system_type ELECTRIC;
	motor_model BASIC;
	motor_efficiency GOOD;
	breaker_amps 1000;
	hvac_breaker_rating 1000;
	hvac_power_factor 0.97;
	fan_type ONE_SPEED;
	number_of_doors 2;
	thermostat_deadband 0.001;
	dlc_offset 100;
	cooling_setpoint 68.99;
	heating_setpoint 65.99;
	object controller {
		schedule_skew 2001;
		bid_delay 1;
		name controller_5;
		market Market_1;
		use_override ON;
		override override;
		bid_mode ON;
		control_mode DOUBLE_RAMP;
		resolve_mode DEADBAND;
		heating_range_high -3.621;
		cooling_range_high 3.621;
		heating_range_low -0.005;
		cooling_range_low -0.005;
		heating_ramp_high -2.276;
		cooling_ramp_high 2.276;
		heating_ramp_low -2.276;
		cooling_ramp_low 2.276;
		cooling_base_setpoint cooling3*0.97+68.99;
		heating_base_setpoint heating3*0.74+60.99;
		period 300;
		average_target current_price_mean_24h;
		standard_deviation_target current_price_stdev_24h;
		target air_temperature;
		heating_setpoint heating_setpoint;
		heating_demand last_heating_load;
		cooling_setpoint cooling_setpoint;
		cooling_demand last_cooling_load;
		deadband thermostat_deadband;
		total hvac_load;
		load hvac_load;
		state power_state;
	};
	object ZIPload {
		// Unresponsive load
		name house_5_unresp_load;
		schedule_skew 2001;
		base_power unresponsive_loads*0.45;
		heatgain_fraction 0.900;
		power_pf 1.000;
		current_pf 1.000;
		impedance_pf 1.000;
		impedance_fraction 0.200000;
		current_fraction 0.400000;
		power_fraction 0.400000;
	};
	object ZIPload {
		name house_5_ppump;
		// Pool Pump
		schedule_skew -533985;
		base_power pool_pump_season*1.60;
		duty_cycle 0.45;
		phase 0.53;
		period 4.88;
		heatgain_fraction 0.0;
		power_pf 1.000;
		current_pf 1.000;
		impedance_pf 1.000;
		impedance_fraction 0.200000;
		current_fraction 0.400000;
		power_fraction 0.400000;
		is_240 TRUE;
	};
	object waterheater {
		schedule_skew 2457;
		heating_element_capacity 5.5 kW;
		tank_setpoint 125.7;
		temperature 132;
		thermostat_deadband 4.9;
		location INSIDE;
		tank_UA 2.7;
		demand small_1*1.05;
		tank_volume 40;
	};
}

object house {
	name house_6;
	parent trip_meter_AS;
	groupid Residential;
	schedule_skew -1595;
	floor_area 326;
	number_of_stories 1;
	ceiling_height 8;
	over_sizing_factor 0.1;
	//Thermal integrity -> Apartment 3
	Rroof 23.67;
	Rwall 13.35;
	Rfloor 12.80;
	glazing_layers 2;
	glass_type 2;
	glazing_treatment 3;
	window_frame 4;
	Rdoors 5.22;
	Rwindows 1.81;
	airchange_per_hour 0.14;
	cooling_COP 2.3;
	air_temperature 69.84;
	mass_temperature 69.84;
	total_thermal_mass_per_floor_area 3.071;
	heating_system_type RESISTANCE;
	cooling_system_type ELECTRIC;
	motor_model BASIC;
	motor_efficiency GOOD;
	breaker_amps 1000;
	hvac_breaker_rating 1000;
	hvac_power_factor 0.97;
	fan_type ONE_SPEED;
	number_of_doors 2;
	thermostat_deadband 0.001;
	dlc_offset 100;
	cooling_setpoint 78.00;
	heating_setpoint 75.00;
	object controller {
		schedule_skew -1595;
		bid_delay 1;
		name controller_6;
		market Market_1;
		use_override ON;
		override override;
		bid_mode ON;
		control_mode DOUBLE_RAMP;
		resolve_mode DEADBAND;
		heating_range_high -1.657;
		cooling_range_high 1.657;
		heating_range_low -0.005;
		cooling_range_low -0.005;
		heating_ramp_high -2.669;
		cooling_ramp_high 2.669;
		heating_ramp_low -2.669;
		cooling_ramp_low 2.669;
		cooling_base_setpoint cooling2*0.66+78.00;
		heating_base_setpoint heating1*0.06+58.43;
		period 300;
		average_target current_price_mean_24h;
		standard_deviation_target current_price_stdev_24h;
		target air_temperature;
		heating_setpoint heating_setpoint;
		heating_demand last_heating_load;
		cooling_setpoint cooling_setpoint;
		cooling_demand last_cooling_load;
		deadband thermostat_deadband;
		total hvac_load;
		load hvac_load;
		state power_state;
	};
	object ZIPload {
		// Unresponsive load
		name house_6_unresp_load;
		schedule_skew -1595;
		base_power unresponsive_loads*0.47;
		heatgain_fraction 0.900;
		power_pf 1.000;
		current_pf 1.000;
		impedance_pf 1.000;
		impedance_fraction 0.200000;
		current_fraction 0.400000;
		power_fraction 0.400000;
	};
	object waterheater {
		schedule_skew -11178;
		heating_element_capacity 5.5 kW;
		tank_setpoint 130.3;
		temperature 132;
		thermostat_deadband 6.7;
		location INSIDE;
		tank_UA 2.6;
		demand large_6*1.00;
		tank_volume 40;
	};
}

object house {
	name house_7;
	parent trip_meter_AS;
	groupid Residential;
	schedule_skew -4683;
	floor_area 3979;
	number_of_stories 1;
	ceiling_height 8;
	over_sizing_factor 0.1;
	//Thermal integrity -> Single Family 7
	Rroof 50.61;
	Rwall 33.22;
	Rfloor 32.04;
	glazing_layers 3;
	glass_type 2;
	glazing_treatment 2;
	window_frame 4;
	Rdoors 12.32;
	Rwindows 1.81;
	airchange_per_hour 0.23;
	cooling_COP 3.5;
	air_temperature 69.74;
	mass_temperature 69.74;
	total_thermal_mass_per_floor_area 3.469;
	heating_system_type RESISTANCE;
	cooling_system_type NONE;
	breaker_amps 1000;
	hvac_breaker_rating 1000;
	hvac_power_factor 0.97;
	fan_type ONE_SPEED;
	number_of_doors 2;
	thermostat_deadband 0.001;
	dlc_offset 100;
	cooling_setpoint 72.98;
	heating_setpoint 69.98;
	object controller {
		schedule_skew -4683;
		bid_delay 1;
		name controller_7;
		market Market_1;
		use_override ON;
		override override;
		bid_mode ON;
		control_mode RAMP;
		range_high -1.365;
		range_low -0.005;
		ramp_high -2.727;
		ramp_low -2.727;
		base_setpoint heating4*0.95+66.12;
		period 300;
		average_target current_price_mean_24h;
		standard_deviation_target current_price_stdev_24h;
		target air_temperature;
		setpoint heating_setpoint;
		demand last_heating_load;
		deadband thermostat_deadband;
		total hvac_load;
		load hvac_load;
		state power_state;
	};
	object ZIPload {
		// Unresponsive load
		name house_7_unresp_load;
		schedule_skew -4683;
		base_power unresponsive_loads*1.20;
		heatgain_fraction 0.900;
		power_pf 1.000;
		current_pf 1.000;
		impedance_pf 1.000;
		impedance_fraction 0.200000;
		current_fraction 0.400000;
		power_fraction 0.400000;
	};
	object waterheater {
		schedule_skew 1860;
		heating_element_capacity 4.5 kW;
		tank_setpoint 124.3;
		temperature 132;
		thermostat_deadband 4.0;
		location INSIDE;
		tank_UA 3.3;
		demand large_4*1.00;
		tank_volume 60;
	};
}

object house {
	name house_8;
	parent trip_meter_CS;
	groupid Residential;
	schedule_skew 3368;
	floor_area 383;
	number_of_stories 1;
	ceiling_height 9;
	over_sizing_factor 0.1;
	//Thermal integrity -> Single Family 1
	Rroof 18.77;
	Rwall 11.85;
	Rfloor 10.23;
	glazing_layers 1;
	glass_type 1;
	glazing_treatment 1;
	window_frame 1;
	Rdoors 3.29;
	Rwindows 1.81;
	airchange_per_hour 0.87;
	cooling_COP 2.4;
	air_temperature 70.11;
	mass_temperature 70.11;
	total_thermal_mass_per_floor_area 3.594;
	heating_system_type RESISTANCE;
	cooling_system_type NONE;
	breaker_amps 1000;
	hvac_breaker_rating 1000;
	hvac_power_factor 0.97;
	fan_type ONE_SPEED;
	number_of_doors 2;
	thermostat_deadband 0.001;
	dlc_offset 100;
	cooling_setpoint 78.61;
	heating_setpoint 75.61;
	object controller {
		schedule_skew 3368;
		bid_delay 1;
		name controller_8;
		market Market_1;
		use_override ON;
		override override;
		bid_mode ON;
		control_mode RAMP;
		range_high -2.294;
		range_low -0.005;
		ramp_high -2.541;
		ramp_low -2.541;
		base_setpoint heating6*0.52+64.10;
		period 300;
		average_target current_price_mean_24h;
		standard_deviation_target current_price_stdev_24h;
		target air_temperature;
		setpoint heating_setpoint;
		demand last_heating_load;
		deadband thermostat_deadband;
		total hvac_load;
		load hvac_load;
		state power_state;
	};
	object ZIPload {
		// Unresponsive load
		name house_8_unresp_load;
		schedule_skew 3368;
		base_power unresponsive_loads*0.43;
		heatgain_fraction 0.900;
		power_pf 1.000;
		current_pf 1.000;
		impedance_pf 1.000;
		impedance_fraction 0.200000;
		current_fraction 0.400000;
		power_fraction 0.400000;
	};
	object waterheater {
		schedule_skew 9913;
		heating_element_capacity 4.0 kW;
		tank_setpoint 131.4;
		temperature 132;
		thermostat_deadband 5.0;
		location INSIDE;
		tank_UA 3.1;
		demand large_6*1.01;
		tank_volume 30;
	};
}

object house {
	name house_9;
	parent trip_meter_AS;
	groupid Residential;
	schedule_skew -5429;
	floor_area 3825;
	number_of_stories 1;
	ceiling_height 8;
	over_sizing_factor 0.1;
	//Thermal integrity -> Apartment 3
	Rroof 29.24;
	Rwall 16.29;
	Rfloor 10.80;
	glazing_layers 2;
	glass_type 2;
	glazing_treatment 3;
	window_frame 4;
	Rdoors 6.66;
	Rwindows 1.81;
	airchange_per_hour 0.14;
	cooling_COP 2.9;
	air_temperature 70.99;
	mass_temperature 70.99;
	total_thermal_mass_per_floor_area 3.430;
	heating_system_type RESISTANCE;
	cooling_system_type ELECTRIC;
	motor_model BASIC;
	motor_efficiency GOOD;
	breaker_amps 1000;
	hvac_breaker_rating 1000;
	hvac_power_factor 0.97;
	fan_type ONE_SPEED;
	number_of_doors 2;
	thermostat_deadband 0.001;
	dlc_offset 100;
	cooling_setpoint 73.22;
	heating_setpoint 70.22;
	object controller {
		schedule_skew -5429;
		bid_delay 1;
		name controller_9;
		market Market_1;
		use_override ON;
		override override;
		bid_mode ON;
		control_mode DOUBLE_RAMP;
		resolve_mode DEADBAND;
		heating_range_high -2.986;
		cooling_range_high 2.986;
		heating_range_low -0.005;
		cooling_range_low -0.005;
		heating_ramp_high -2.403;
		cooling_ramp_high 2.403;
		heating_ramp_low -2.403;
		cooling_ramp_low 2.403;
		cooling_base_setpoint cooling7*0.51+73.22;
		heating_base_setpoint heating4*0.21+66.99;
		period 300;
		average_target current_price_mean_24h;
		standard_deviation_target current_price_stdev_24h;
		target air_temperature;
		heating_setpoint heating_setpoint;
		heating_demand last_heating_load;
		cooling_setpoint cooling_setpoint;
		cooling_demand last_cooling_load;
		deadband thermostat_deadband;
		total hvac_load;
		load hvac_load;
		state power_state;
	};
	object ZIPload {
		// Unresponsive load
		name house_9_unresp_load;
		schedule_skew -5429;
		base_power unresponsive_loads*1.29;
		heatgain_fraction 0.900;
		power_pf 1.000;
		current_pf 1.000;
		impedance_pf 1.000;
		impedance_fraction 0.200000;
		current_fraction 0.400000;
		power_fraction 0.400000;
	};
	object waterheater {
		schedule_skew 9673;
		heating_element_capacity 3.5 kW;
		tank_setpoint 129.1;
		temperature 132;
		thermostat_deadband 5.2;
		location INSIDE;
		tank_UA 2.5;
		demand large_4*1.04;
		tank_volume 30;
	};
}

object house {
	name house_10;
	parent trip_meter_AS;
	groupid Residential;
	schedule_skew 757;
	floor_area 3983;
	number_of_stories 1;
	ceiling_height 8;
	over_sizing_factor 0.1;
	//Thermal integrity -> Single Family 2
	Rroof 17.12;
	Rwall 12.14;
	Rfloor 11.38;
	glazing_layers 2;
	glass_type 1;
	glazing_treatment 1;
	window_frame 1;
	Rdoors 2.63;
	Rwindows 1.81;
	airchange_per_hour 0.80;
	cooling_COP 2.7;
	air_temperature 70.95;
	mass_temperature 70.95;
	total_thermal_mass_per_floor_area 3.500;
	heating_system_type RESISTANCE;
	cooling_system_type ELECTRIC;
	motor_model BASIC;
	motor_efficiency GOOD;
	breaker_amps 1000;
	hvac_breaker_rating 1000;
	hvac_power_factor 0.97;
	fan_type ONE_SPEED;
	number_of_doors 2;
	thermostat_deadband 0.001;
	dlc_offset 100;
	cooling_setpoint 75.36;
	heating_setpoint 72.36;
	object controller {
		schedule_skew 757;
		bid_delay 1;
		name controller_10;
		market Market_1;
		use_override ON;
		override override;
		bid_mode ON;
		control_mode DOUBLE_RAMP;
		resolve_mode DEADBAND;
		heating_range_high -2.760;
		cooling_range_high 2.760;
		heating_range_low -0.005;
		cooling_range_low -0.005;
		heating_ramp_high -2.448;
		cooling_ramp_high 2.448;
		heating_ramp_low -2.448;
		cooling_ramp_low 2.448;
		cooling_base_setpoint cooling4*0.88+75.36;
		heating_base_setpoint heating3*1.24+69.00;
		period 300;
		average_target current_price_mean_24h;
		standard_deviation_target current_price_stdev_24h;
		target air_temperature;
		heating_setpoint heating_setpoint;
		heating_demand last_heating_load;
		cooling_setpoint cooling_setpoint;
		cooling_demand last_cooling_load;
		deadband thermostat_deadband;
		total hvac_load;
		load hvac_load;
		state power_state;
	};
	object ZIPload {
		// Unresponsive load
		name house_10_unresp_load;
		schedule_skew 757;
		base_power unresponsive_loads*1.65;
		heatgain_fraction 0.900;
		power_pf 1.000;
		current_pf 1.000;
		impedance_pf 1.000;
		impedance_fraction 0.200000;
		current_fraction 0.400000;
		power_fraction 0.400000;
	};
}

object house {
	name house_11;
	parent trip_meter_BS;
	groupid Residential;
	schedule_skew 885;
	floor_area 320;
	number_of_stories 1;
	ceiling_height 8;
	over_sizing_factor 0.1;
	//Thermal integrity -> Apartment 3
	Rroof 27.90;
	Rwall 15.92;
	Rfloor 14.18;
	glazing_layers 2;
	glass_type 2;
	glazing_treatment 3;
	window_frame 4;
	Rdoors 7.36;
	Rwindows 1.81;
	airchange_per_hour 0.12;
	cooling_COP 3.0;
	air_temperature 68.12;
	mass_temperature 68.12;
	total_thermal_mass_per_floor_area 2.903;
	heating_system_type RESISTANCE;
	cooling_system_type NONE;
	breaker_amps 1000;
	hvac_breaker_rating 1000;
	hvac_power_factor 0.97;
	fan_type ONE_SPEED;
	number_of_doors 2;
	thermostat_deadband 0.001;
	dlc_offset 100;
	cooling_setpoint 72.46;
	heating_setpoint 69.46;
	object controller {
		schedule_skew 885;
		bid_delay 1;
		name controller_11;
		market Market_1;
		use_override ON;
		override override;
		bid_mode ON;
		control_mode RAMP;
		range_high -1.681;
		range_low -0.005;
		ramp_high -2.664;
		ramp_low -2.664;
		base_setpoint heating6*0.31+67.02;
		period 300;
		average_target current_price_mean_24h;
		standard_deviation_target current_price_stdev_24h;
		target air_temperature;
		setpoint heating_setpoint;
		demand last_heating_load;
		deadband thermostat_deadband;
		total hvac_load;
		load hvac_load;
		state power_state;
	};
	object ZIPload {
		// Unresponsive load
		name house_11_unresp_load;
		schedule_skew 885;
		base_power unresponsive_loads*0.52;
		heatgain_fraction 0.900;
		power_pf 1.000;
		current_pf 1.000;
		impedance_pf 1.000;
		impedance_fraction 0.200000;
		current_fraction 0.400000;
		power_fraction 0.400000;
	};
}

object house {
	name house_12;
	parent trip_meter_BS;
	groupid Residential;
	schedule_skew -4179;
	floor_area 380;
	number_of_stories 1;
	ceiling_height 8;
	over_sizing_factor 0.1;
	//Thermal integrity -> Apartment 3
	Rroof 25.51;
	Rwall 13.07;
	Rfloor 10.81;
	glazing_layers 2;
	glass_type 2;
	glazing_treatment 3;
	window_frame 4;
	Rdoors 7.48;
	Rwindows 1.81;
	airchange_per_hour 0.11;
	cooling_COP 2.4;
	air_temperature 71.44;
	mass_temperature 71.44;
	total_thermal_mass_per_floor_area 2.877;
	heating_system_type RESISTANCE;
	cooling_system_type ELECTRIC;
	motor_model BASIC;
	motor_efficiency GOOD;
	breaker_amps 1000;
	hvac_breaker_rating 1000;
	hvac_power_factor 0.97;
	fan_type ONE_SPEED;
	number_of_doors 2;
	thermostat_deadband 0.001;
	dlc_offset 100;
	cooling_setpoint 68.47;
	heating_setpoint 65.47;
	object controller {
		schedule_skew -4179;
		bid_delay 1;
		name controller_12;
		market Market_1;
		use_override ON;
		override override;
		bid_mode ON;
		control_mode DOUBLE_RAMP;
		resolve_mode DEADBAND;
		heating_range_high -1.610;
		cooling_range_high 1.610;
		heating_range_low -0.005;
		cooling_range_low -0.005;
		heating_ramp_high -2.678;
		cooling_ramp_high 2.678;
		heating_ramp_low -2.678;
		cooling_ramp_low 2.678;
		cooling_base_setpoint cooling3*0.78+68.47;
		heating_base_setpoint heating5*0.06+59.92;
		period 300;
		average_target current_price_mean_24h;
		standard_deviation_target current_price_stdev_24h;
		target air_temperature;
		heating_setpoint heating_setpoint;
		heating_demand last_heating_load;
		cooling_setpoint cooling_setpoint;
		cooling_demand last_cooling_load;
		deadband thermostat_deadband;
		total hvac_load;
		load hvac_load;
		state power_state;
	};
	object ZIPload {
		// Unresponsive load
		name house_12_unresp_load;
		schedule_skew -4179;
		base_power unresponsive_loads*0.45;
		heatgain_fraction 0.900;
		power_pf 1.000;
		current_pf 1.000;
		impedance_pf 1.000;
		impedance_fraction 0.200000;
		current_fraction 0.400000;
		power_fraction 0.400000;
	};
	object waterheater {
		schedule_skew -12974;
		heating_element_capacity 5.0 kW;
		tank_setpoint 134.8;
		temperature 132;
		thermostat_deadband 4.9;
		location INSIDE;
		tank_UA 2.9;
		demand small_6*0.99;
		tank_volume 30;
	};
}

object house {
	name house_13;
	parent trip_meter_CS;
	groupid Residential;
	schedule_skew 941;
	floor_area 3860;
	number_of_stories 1;
	ceiling_height 8;
	over_sizing_factor 0.1;
	//Thermal integrity -> Apartment 3
	Rroof 29.73;
	Rwall 14.76;
	Rfloor 11.14;
	glazing_layers 2;
	glass_type 2;
	glazing_treatment 3;
	window_frame 4;
	Rdoors 6.35;
	Rwindows 1.81;
	airchange_per_hour 0.14;
	cooling_COP 2.7;
	air_temperature 71.26;
	mass_temperature 71.26;
	total_thermal_mass_per_floor_area 3.462;
	heating_system_type RESISTANCE;
	cooling_system_type NONE;
	breaker_amps 1000;
	hvac_breaker_rating 1000;
	hvac_power_factor 0.97;
	fan_type ONE_SPEED;
	number_of_doors 2;
	thermostat_deadband 0.001;
	dlc_offset 100;
	cooling_setpoint 68.45;
	heating_setpoint 65.45;
	object controller {
		schedule_skew 941;
		bid_delay 1;
		name controller_13;
		market Market_1;
		use_override ON;
		override override;
		bid_mode ON;
		control_mode RAMP;
		range_high -1.608;
		range_low -0.005;
		ramp_high -2.678;
		ramp_low -2.678;
		base_setpoint heating4*0.20+59.61;
		period 300;
		average_target current_price_mean_24h;
		standard_deviation_target current_price_stdev_24h;
		target air_temperature;
		setpoint heating_setpoint;
		demand last_heating_load;
		deadband thermostat_deadband;
		total hvac_load;
		load hvac_load;
		state power_state;
	};
	object ZIPload {
		// Unresponsive load
		name house_13_unresp_load;
		schedule_skew 941;
		base_power unresponsive_loads*1.28;
		heatgain_fraction 0.900;
		power_pf 1.000;
		current_pf 1.000;
		impedance_pf 1.000;
		impedance_fraction 0.200000;
		current_fraction 0.400000;
		power_fraction 0.400000;
	};
	object waterheater {
		schedule_skew 4086;
		heating_element_capacity 3.5 kW;
		tank_setpoint 120.8;
		temperature 132;
		thermostat_deadband 4.5;
		location INSIDE;
		tank_UA 2.5;
		demand large_5*1.01;
		tank_volume 60;
	};
}

object house {
	name house_14;
	parent trip_meter_CS;
	groupid Residential;
	schedule_skew 2807;
	floor_area 382;
	number_of_stories 1;
	ceiling_height 8;
	over_sizing_factor 0.1;
	//Thermal integrity -> Apartment 3
	Rroof 24.83;
	Rwall 15.68;
	Rfloor 14.05;
	glazing_layers 2;
	glass_type 2;
	glazing_treatment 3;
	window_frame 4;
	Rdoors 7.44;
	Rwindows 1.81;
	airchange_per_hour 0.10;
	cooling_COP 2.2;
	air_temperature 68.48;
	mass_temperature 68.48;
	total_thermal_mass_per_floor_area 3.131;
	heating_system_type RESISTANCE;
	cooling_system_type NONE;
	breaker_amps 1000;
	hvac_breaker_rating 1000;
	hvac_power_factor 0.97;
	fan_type ONE_SPEED;
	number_of_doors 2;
	thermostat_deadband 0.001;
	dlc_offset 100;
	cooling_setpoint 71.00;
	heating_setpoint 68.00;
	object controller {
		schedule_skew 2807;
		bid_delay 1;
		name controller_14;
		market Market_1;
		use_override ON;
		override override;
		bid_mode ON;
		control_mode RAMP;
		range_high -1.760;
		range_low -0.005;
		ramp_high -2.648;
		ramp_low -2.648;
		base_setpoint heating3*0.33+63.52;
		period 300;
		average_target current_price_mean_24h;
		standard_deviation_target current_price_stdev_24h;
		target air_temperature;
		setpoint heating_setpoint;
		demand last_heating_load;
		deadband thermostat_deadband;
		total hvac_load;
		load hvac_load;
		state power_state;
	};
	object ZIPload {
		// Unresponsive load
		name house_14_unresp_load;
		schedule_skew 2807;
		base_power unresponsive_loads*0.53;
		heatgain_fraction 0.900;
		power_pf 1.000;
		current_pf 1.000;
		impedance_pf 1.000;
		impedance_fraction 0.200000;
		current_fraction 0.400000;
		power_fraction 0.400000;
	};
	object waterheater {
		schedule_skew -8801;
		heating_element_capacity 3.5 kW;
		tank_setpoint 135.3;
		temperature 132;
		thermostat_deadband 4.5;
		location INSIDE;
		tank_UA 3.7;
		demand large_2*1.04;
		tank_volume 40;
	};
}

object house {
	name house_15;
	parent trip_meter_CS;
	groupid Residential;
	schedule_skew -790;
	floor_area 362;
	number_of_stories 1;
	ceiling_height 8;
	over_sizing_factor 0.1;
	//Thermal integrity -> Single Family 5
	Rroof 39.57;
	Rwall 18.58;
	Rfloor 17.57;
	glazing_layers 2;
	glass_type 1;
	glazing_treatment 1;
	window_frame 2;
	Rdoors 3.35;
	Rwindows 1.81;
	airchange_per_hour 0.55;
	cooling_COP 3.2;
	air_temperature 71.92;
	mass_temperature 71.92;
	total_thermal_mass_per_floor_area 3.596;
	heating_system_type RESISTANCE;
	cooling_system_type NONE;
	breaker_amps 1000;
	hvac_breaker_rating 1000;
	hvac_power_factor 0.97;
	fan_type ONE_SPEED;
	number_of_doors 2;
	thermostat_deadband 0.001;
	dlc_offset 100;
	cooling_setpoint 71.00;
	heating_setpoint 68.00;
	object controller {
		schedule_skew -790;
		bid_delay 1;
		name controller_15;
		market Market_1;
		use_override ON;
		override override;
		bid_mode ON;
		control_mode RAMP;
		range_high -2.759;
		range_low -0.005;
		ramp_high -2.448;
		ramp_low -2.448;
		base_setpoint heating5*0.44+64.27;
		period 300;
		average_target current_price_mean_24h;
		standard_deviation_target current_price_stdev_24h;
		target air_temperature;
		setpoint heating_setpoint;
		demand last_heating_load;
		deadband thermostat_deadband;
		total hvac_load;
		load hvac_load;
		state power_state;
	};
	object ZIPload {
		// Unresponsive load
		name house_15_unresp_load;
		schedule_skew -790;
		base_power unresponsive_loads*0.44;
		heatgain_fraction 0.900;
		power_pf 1.000;
		current_pf 1.000;
		impedance_pf 1.000;
		impedance_fraction 0.200000;
		current_fraction 0.400000;
		power_fraction 0.400000;
	};
}

object house {
	name house_16;
	parent trip_meter_CS;
	groupid Residential;
	schedule_skew -1852;
	floor_area 379;
	number_of_stories 1;
	ceiling_height 8;
	over_sizing_factor 0.1;
	//Thermal integrity -> Apartment 2
	Rroof 17.94;
	Rwall 12.77;
	Rfloor 11.97;
	glazing_layers 2;
	glass_type 1;
	glazing_treatment 2;
	window_frame 2;
	Rdoors 2.30;
	Rwindows 1.81;
	airchange_per_hour 0.27;
	cooling_COP 2.9;
	air_temperature 71.02;
	mass_temperature 71.02;
	total_thermal_mass_per_floor_area 2.807;
	heating_system_type RESISTANCE;
	cooling_system_type NONE;
	breaker_amps 1000;
	hvac_breaker_rating 1000;
	hvac_power_factor 0.97;
	fan_type ONE_SPEED;
	number_of_doors 2;
	thermostat_deadband 0.001;
	dlc_offset 100;
	cooling_setpoint 69.45;
	heating_setpoint 66.45;
	object controller {
		schedule_skew -1852;
		bid_delay 1;
		name controller_16;
		market Market_1;
		use_override ON;
		override override;
		bid_mode ON;
		control_mode RAMP;
		range_high -3.786;
		range_low -0.005;
		ramp_high -2.243;
		ramp_low -2.243;
		base_setpoint heating2*0.23+58.15;
		period 300;
		average_target current_price_mean_24h;
		standard_deviation_target current_price_stdev_24h;
		target air_temperature;
		setpoint heating_setpoint;
		demand last_heating_load;
		deadband thermostat_deadband;
		total hvac_load;
		load hvac_load;
		state power_state;
	};
	object ZIPload {
		// Unresponsive load
		name house_16_unresp_load;
		schedule_skew -1852;
		base_power unresponsive_loads*0.49;
		heatgain_fraction 0.900;
		power_pf 1.000;
		current_pf 1.000;
		impedance_pf 1.000;
		impedance_fraction 0.200000;
		current_fraction 0.400000;
		power_fraction 0.400000;
	};
}

object house {
	name house_17;
	parent trip_meter_BS;
	groupid Residential;
	schedule_skew 2253;
	floor_area 310;
	number_of_stories 1;
	ceiling_height 8;
	over_sizing_factor 0.1;
	//Thermal integrity -> Single Family 4
	Rroof 28.79;
	Rwall 14.86;
	Rfloor 21.64;
	glazing_layers 2;
	glass_type 1;
	glazing_treatment 1;
	window_frame 2;
	Rdoors 3.51;
	Rwindows 1.81;
	airchange_per_hour 0.51;
	cooling_COP 2.9;
	air_temperature 70.39;
	mass_temperature 70.39;
	total_thermal_mass_per_floor_area 3.562;
	heating_system_type RESISTANCE;
	cooling_system_type NONE;
	breaker_amps 1000;
	hvac_breaker_rating 1000;
	hvac_power_factor 0.97;
	fan_type ONE_SPEED;
	number_of_doors 2;
	thermostat_deadband 0.001;
	dlc_offset 100;
	cooling_setpoint 71.00;
	heating_setpoint 68.00;
	object controller {
		schedule_skew 2253;
		bid_delay 1;
		name controller_17;
		market Market_1;
		use_override ON;
		override override;
		bid_mode ON;
		control_mode RAMP;
		range_high -2.475;
		range_low -0.005;
		ramp_high -2.505;
		ramp_low -2.505;
		base_setpoint heating1*0.62+66.78;
		period 300;
		average_target current_price_mean_24h;
		standard_deviation_target current_price_stdev_24h;
		target air_temperature;
		setpoint heating_setpoint;
		demand last_heating_load;
		deadband thermostat_deadband;
		total hvac_load;
		load hvac_load;
		state power_state;
	};
	object ZIPload {
		// Unresponsive load
		name house_17_unresp_load;
		schedule_skew 2253;
		base_power unresponsive_loads*0.44;
		heatgain_fraction 0.900;
		power_pf 1.000;
		current_pf 1.000;
		impedance_pf 1.000;
		impedance_fraction 0.200000;
		current_fraction 0.400000;
		power_fraction 0.400000;
	};
	object waterheater {
		schedule_skew -6010;
		heating_element_capacity 3.5 kW;
		tank_setpoint 135.4;
		temperature 132;
		thermostat_deadband 7.5;
		location INSIDE;
		tank_UA 3.9;
		demand large_4*0.96;
		tank_volume 40;
	};
}

object house {
	name house_18;
	parent trip_meter_CS;
	groupid Residential;
	schedule_skew 409;
	floor_area 3932;
	number_of_stories 2;
	ceiling_height 10;
	over_sizing_factor 0.1;
	//Thermal integrity -> Single Family 1
	Rroof 16.08;
	Rwall 8.80;
	Rfloor 11.70;
	glazing_layers 1;
	glass_type 1;
	glazing_treatment 1;
	window_frame 1;
	Rdoors 2.86;
	Rwindows 1.81;
	airchange_per_hour 0.82;
	cooling_COP 2.7;
	air_temperature 68.59;
	mass_temperature 68.59;
	total_thermal_mass_per_floor_area 3.640;
	heating_system_type RESISTANCE;
	cooling_system_type ELECTRIC;
	motor_model BASIC;
	motor_efficiency GOOD;
	breaker_amps 1000;
	hvac_breaker_rating 1000;
	hvac_power_factor 0.97;
	fan_type ONE_SPEED;
	number_of_doors 2;
	thermostat_deadband 0.001;
	dlc_offset 100;
	cooling_setpoint 68.48;
	heating_setpoint 65.48;
	object controller {
		schedule_skew 409;
		bid_delay 1;
		name controller_18;
		market Market_1;
		use_override ON;
		override override;
		bid_mode ON;
		control_mode DOUBLE_RAMP;
		resolve_mode DEADBAND;
		heating_range_high -1.583;
		cooling_range_high 1.583;
		heating_range_low -0.005;
		cooling_range_low -0.005;
		heating_ramp_high -2.683;
		cooling_ramp_high 2.683;
		heating_ramp_low -2.683;
		cooling_ramp_low 2.683;
		cooling_base_setpoint cooling3*0.58+68.48;
		heating_base_setpoint heating5*1.27+61.70;
		period 300;
		average_target current_price_mean_24h;
		standard_deviation_target current_price_stdev_24h;
		target air_temperature;
		heating_setpoint heating_setpoint;
		heating_demand last_heating_load;
		cooling_setpoint cooling_setpoint;
		cooling_demand last_cooling_load;
		deadband thermostat_deadband;
		total hvac_load;
		load hvac_load;
		state power_state;
	};
	object ZIPload {
		// Unresponsive load
		name house_18_unresp_load;
		schedule_skew 409;
		base_power unresponsive_loads*1.67;
		heatgain_fraction 0.900;
		power_pf 1.000;
		current_pf 1.000;
		impedance_pf 1.000;
		impedance_fraction 0.200000;
		current_fraction 0.400000;
		power_fraction 0.400000;
	};
}

object house {
	name house_19;
	parent trip_meter_CS;
	groupid Residential;
	schedule_skew -3104;
	floor_area 3989;
	number_of_stories 1;
	ceiling_height 8;
	over_sizing_factor 0.1;
	//Thermal integrity -> Apartment 3
	Rroof 25.72;
	Rwall 11.50;
	Rfloor 13.36;
	glazing_layers 2;
	glass_type 2;
	glazing_treatment 3;
	window_frame 4;
	Rdoors 5.71;
	Rwindows 1.81;
	airchange_per_hour 0.13;
	cooling_COP 2.4;
	air_temperature 70.74;
	mass_temperature 70.74;
	total_thermal_mass_per_floor_area 3.353;
	heating_system_type GAS;
	cooling_system_type NONE;
	breaker_amps 1000;
	hvac_breaker_rating 1000;
	hvac_power_factor 0.97;
	fan_type ONE_SPEED;
	number_of_doors 2;
	thermostat_deadband 0.001;
	dlc_offset 100;
	cooling_setpoint cooling7*0.73+84.69;
	heating_setpoint heating6*0.40+59.33;
	object ZIPload {
		// Unresponsive load
		name house_19_unresp_load;
		schedule_skew -3104;
		base_power unresponsive_loads*1.51;
		heatgain_fraction 0.900;
		power_pf 1.000;
		current_pf 1.000;
		impedance_pf 1.000;
		impedance_fraction 0.200000;
		current_fraction 0.400000;
		power_fraction 0.400000;
	};
}

object house {
	name house_20;
	parent trip_meter_AS;
	groupid Residential;
	schedule_skew -2438;
	floor_area 3886;
	number_of_stories 1;
	ceiling_height 8;
	over_sizing_factor 0.1;
	//Thermal integrity -> Single Family 4
	Rroof 32.38;
	Rwall 19.80;
	Rfloor 20.10;
	glazing_layers 2;
	glass_type 1;
	glazing_treatment 1;
	window_frame 2;
	Rdoors 2.63;
	Rwindows 1.81;
	airchange_per_hour 0.44;
	cooling_COP 3.3;
	air_temperature 71.47;
	mass_temperature 71.47;
	total_thermal_mass_per_floor_area 3.289;
	heating_system_type RESISTANCE;
	cooling_system_type ELECTRIC;
	motor_model BASIC;
	motor_efficiency GOOD;
	breaker_amps 1000;
	hvac_breaker_rating 1000;
	hvac_power_factor 0.97;
	fan_type ONE_SPEED;
	number_of_doors 2;
	thermostat_deadband 0.001;
	dlc_offset 100;
	cooling_setpoint 68.26;
	heating_setpoint 65.26;
	object controller {
		schedule_skew -2438;
		bid_delay 1;
		name controller_20;
		market Market_1;
		use_override ON;
		override override;
		bid_mode ON;
		control_mode DOUBLE_RAMP;
		resolve_mode DEADBAND;
		heating_range_high -4.300;
		cooling_range_high 4.300;
		heating_range_low -0.005;
		cooling_range_low -0.005;
		heating_ramp_high -2.140;
		cooling_ramp_high 2.140;
		heating_ramp_low -2.140;
		cooling_ramp_low 2.140;
		cooling_base_setpoint cooling4*0.68+68.26;
		heating_base_setpoint heating4*1.29+58.91;
		period 300;
		average_target current_price_mean_24h;
		standard_deviation_target current_price_stdev_24h;
		target air_temperature;
		heating_setpoint heating_setpoint;
		heating_demand last_heating_load;
		cooling_setpoint cooling_setpoint;
		cooling_demand last_cooling_load;
		deadband thermostat_deadband;
		total hvac_load;
		load hvac_load;
		state power_state;
	};
	object ZIPload {
		// Unresponsive load
		name house_20_unresp_load;
		schedule_skew -2438;
		base_power unresponsive_loads*1.28;
		heatgain_fraction 0.900;
		power_pf 1.000;
		current_pf 1.000;
		impedance_pf 1.000;
		impedance_fraction 0.200000;
		current_fraction 0.400000;
		power_fraction 0.400000;
	};
	object waterheater {
		schedule_skew 662;
		heating_element_capacity 5.5 kW;
		tank_setpoint 122.4;
		temperature 132;
		thermostat_deadband 4.9;
		location INSIDE;
		tank_UA 3.1;
		demand large_2*1.01;
		tank_volume 70;
	};
}

object house {
	name house_21;
	parent trip_meter_AS;
	groupid Residential;
	schedule_skew -1557;
	floor_area 307;
	number_of_stories 1;
	ceiling_height 8;
	over_sizing_factor 0.1;
	//Thermal integrity -> Single Family 5
	Rroof 32.85;
	Rwall 20.69;
	Rfloor 21.34;
	glazing_layers 2;
	glass_type 1;
	glazing_treatment 1;
	window_frame 2;
	Rdoors 3.43;
	Rwindows 1.81;
	airchange_per_hour 0.59;
	cooling_COP 3.6;
	air_temperature 70.92;
	mass_temperature 70.92;
	total_thermal_mass_per_floor_area 3.964;
	heating_system_type RESISTANCE;
	cooling_system_type NONE;
	breaker_amps 1000;
	hvac_breaker_rating 1000;
	hvac_power_factor 0.97;
	fan_type ONE_SPEED;
	number_of_doors 2;
	thermostat_deadband 0.001;
	dlc_offset 100;
	cooling_setpoint 71.00;
	heating_setpoint 68.00;
	object controller {
		schedule_skew -1557;
		bid_delay 1;
		name controller_21;
		market Market_1;
		use_override ON;
		override override;
		bid_mode ON;
		control_mode RAMP;
		range_high -2.313;
		range_low -0.005;
		ramp_high -2.537;
		ramp_low -2.537;
		base_setpoint heating6*0.84+59.86;
		period 300;
		average_target current_price_mean_24h;
		standard_deviation_target current_price_stdev_24h;
		target air_temperature;
		setpoint heating_setpoint;
		demand last_heating_load;
		deadband thermostat_deadband;
		total hvac_load;
		load hvac_load;
		state power_state;
	};
	object ZIPload {
		// Unresponsive load
		name house_21_unresp_load;
		schedule_skew -1557;
		base_power unresponsive_loads*0.51;
		heatgain_fraction 0.900;
		power_pf 1.000;
		current_pf 1.000;
		impedance_pf 1.000;
		impedance_fraction 0.200000;
		current_fraction 0.400000;
		power_fraction 0.400000;
	};
	object ZIPload {
		name house_21_ppump;
		// Pool Pump
		schedule_skew 79655;
		base_power pool_pump_season*1.51;
		duty_cycle 0.19;
		phase 0.46;
		period 7.48;
		heatgain_fraction 0.0;
		power_pf 1.000;
		current_pf 1.000;
		impedance_pf 1.000;
		impedance_fraction 0.200000;
		current_fraction 0.400000;
		power_fraction 0.400000;
		is_240 TRUE;
	};
	object waterheater {
		schedule_skew -5031;
		heating_element_capacity 4.5 kW;
		tank_setpoint 120.1;
		temperature 132;
		thermostat_deadband 4.8;
		location INSIDE;
		tank_UA 2.7;
		demand large_2*1.02;
		tank_volume 50;
	};
}

object house {
	name house_22;
	parent trip_meter_CS;
	groupid Residential;
	schedule_skew 1374;
	floor_area 3921;
	number_of_stories 1;
	ceiling_height 8;
	over_sizing_factor 0.1;
	//Thermal integrity -> Single Family 5
	Rroof 32.98;
	Rwall 15.77;
	Rfloor 16.96;
	glazing_layers 2;
	glass_type 1;
	glazing_treatment 1;
	window_frame 2;
	Rdoors 2.66;
	Rwindows 1.81;
	airchange_per_hour 0.43;
	cooling_COP 3.3;
	air_temperature 69.97;
	mass_temperature 69.97;
	total_thermal_mass_per_floor_area 3.465;
	heating_system_type RESISTANCE;
	cooling_system_type ELECTRIC;
	motor_model BASIC;
	motor_efficiency GOOD;
	breaker_amps 1000;
	hvac_breaker_rating 1000;
	hvac_power_factor 0.97;
	fan_type ONE_SPEED;
	number_of_doors 2;
	thermostat_deadband 0.001;
	dlc_offset 100;
	cooling_setpoint 76.19;
	heating_setpoint 73.19;
	object controller {
		schedule_skew 1374;
		bid_delay 1;
		name controller_22;
		market Market_1;
		use_override ON;
		override override;
		bid_mode ON;
		control_mode DOUBLE_RAMP;
		resolve_mode DEADBAND;
		heating_range_high -3.523;
		cooling_range_high 3.523;
		heating_range_low -0.005;
		cooling_range_low -0.005;
		heating_ramp_high -2.295;
		cooling_ramp_high 2.295;
		heating_ramp_low -2.295;
		cooling_ramp_low 2.295;
		cooling_base_setpoint cooling5*0.35+76.19;
		heating_base_setpoint heating2*0.18+69.00;
		period 300;
		average_target current_price_mean_24h;
		standard_deviation_target current_price_stdev_24h;
		target air_temperature;
		heating_setpoint heating_setpoint;
		heating_demand last_heating_load;
		cooling_setpoint cooling_setpoint;
		cooling_demand last_cooling_load;
		deadband thermostat_deadband;
		total hvac_load;
		load hvac_load;
		state power_state;
	};
	object ZIPload {
		// Unresponsive load
		name house_22_unresp_load;
		schedule_skew 1374;
		base_power unresponsive_loads*1.32;
		heatgain_fraction 0.900;
		power_pf 1.000;
		current_pf 1.000;
		impedance_pf 1.000;
		impedance_fraction 0.200000;
		current_fraction 0.400000;
		power_fraction 0.400000;
	};
	object waterheater {
		schedule_skew -10379;
		heating_element_capacity 5.0 kW;
		tank_setpoint 131.2;
		temperature 132;
		thermostat_deadband 6.8;
		location INSIDE;
		tank_UA 3.5;
		demand large_3*0.98;
		tank_volume 40;
	};
}

object house {
	name house_23;
	parent trip_meter_CS;
	groupid Residential;
	schedule_skew 1449;
	floor_area 389;
	number_of_stories 1;
	ceiling_height 8;
	over_sizing_factor 0.1;
	//Thermal integrity -> Single Family 4
	Rroof 24.27;
	Rwall 13.86;
	Rfloor 21.10;
	glazing_layers 2;
	glass_type 1;
	glazing_treatment 1;
	window_frame 2;
	Rdoors 3.19;
	Rwindows 1.81;
	airchange_per_hour 0.44;
	cooling_COP 2.9;
	air_temperature 68.48;
	mass_temperature 68.48;
	total_thermal_mass_per_floor_area 2.847;
	heating_system_type RESISTANCE;
	cooling_system_type NONE;
	breaker_amps 1000;
	hvac_breaker_rating 1000;
	hvac_power_factor 0.97;
	fan_type ONE_SPEED;
	number_of_doors 2;
	thermostat_deadband 0.001;
	dlc_offset 100;
	cooling_setpoint 76.09;
	heating_setpoint 73.09;
	object controller {
		schedule_skew 1449;
		bid_delay 1;
		name controller_23;
		market Market_1;
		use_override ON;
		override override;
		bid_mode ON;
		control_mode RAMP;
		range_high -1.126;
		range_low -0.005;
		ramp_high -2.775;
		ramp_low -2.775;
		base_setpoint heating1*1.52+70.64;
		period 300;
		average_target current_price_mean_24h;
		standard_deviation_target current_price_stdev_24h;
		target air_temperature;
		setpoint heating_setpoint;
		demand last_heating_load;
		deadband thermostat_deadband;
		total hvac_load;
		load hvac_load;
		state power_state;
	};
	object ZIPload {
		// Unresponsive load
		name house_23_unresp_load;
		schedule_skew 1449;
		base_power unresponsive_loads*0.46;
		heatgain_fraction 0.900;
		power_pf 1.000;
		current_pf 1.000;
		impedance_pf 1.000;
		impedance_fraction 0.200000;
		current_fraction 0.400000;
		power_fraction 0.400000;
	};
	object waterheater {
		schedule_skew 6225;
		heating_element_capacity 5.5 kW;
		tank_setpoint 128.9;
		temperature 132;
		thermostat_deadband 4.2;
		location INSIDE;
		tank_UA 2.3;
		demand large_3*1.02;
		tank_volume 40;
	};
}

object house {
	name house_24;
	parent trip_meter_CS;
	groupid Residential;
	schedule_skew 311;
	floor_area 303;
	number_of_stories 1;
	ceiling_height 8;
	over_sizing_factor 0.1;
	//Thermal integrity -> Single Family 5
	Rroof 30.84;
	Rwall 21.40;
	Rfloor 19.04;
	glazing_layers 2;
	glass_type 1;
	glazing_treatment 1;
	window_frame 2;
	Rdoors 3.17;
	Rwindows 1.81;
	airchange_per_hour 0.45;
	cooling_COP 3.1;
	air_temperature 71.07;
	mass_temperature 71.07;
	total_thermal_mass_per_floor_area 2.620;
	heating_system_type RESISTANCE;
	cooling_system_type NONE;
	breaker_amps 1000;
	hvac_breaker_rating 1000;
	hvac_power_factor 0.97;
	fan_type ONE_SPEED;
	number_of_doors 2;
	thermostat_deadband 0.001;
	dlc_offset 100;
	cooling_setpoint 79.24;
	heating_setpoint 76.24;
	object controller {
		schedule_skew 311;
		bid_delay 1;
		name controller_24;
		market Market_1;
		use_override ON;
		override override;
		bid_mode ON;
		control_mode RAMP;
		range_high -2.421;
		range_low -0.005;
		ramp_high -2.516;
		ramp_low -2.516;
		base_setpoint heating2*1.02+70.39;
		period 300;
		average_target current_price_mean_24h;
		standard_deviation_target current_price_stdev_24h;
		target air_temperature;
		setpoint heating_setpoint;
		demand last_heating_load;
		deadband thermostat_deadband;
		total hvac_load;
		load hvac_load;
		state power_state;
	};
	object ZIPload {
		// Unresponsive load
		name house_24_unresp_load;
		schedule_skew 311;
		base_power unresponsive_loads*0.42;
		heatgain_fraction 0.900;
		power_pf 1.000;
		current_pf 1.000;
		impedance_pf 1.000;
		impedance_fraction 0.200000;
		current_fraction 0.400000;
		power_fraction 0.400000;
	};
	object waterheater {
		schedule_skew 737;
		heating_element_capacity 5.0 kW;
		tank_setpoint 122.5;
		temperature 132;
		thermostat_deadband 7.7;
		location INSIDE;
		tank_UA 2.4;
		demand large_2*1.02;
		tank_volume 30;
	};
}

object house {
	name house_25;
	parent trip_meter_BS;
	groupid Residential;
	schedule_skew 959;
	floor_area 3892;
	number_of_stories 1;
	ceiling_height 8;
	over_sizing_factor 0.1;
	//Thermal integrity -> Mobile Home 3
	Rroof 21.09;
	Rwall 13.13;
	Rfloor 19.83;
	glazing_layers 2;
	glass_type 2;
	glazing_treatment 1;
	window_frame 2;
	Rdoors 2.70;
	Rwindows 1.81;
	airchange_per_hour 0.77;
	cooling_COP 2.5;
	air_temperature 70.62;
	mass_temperature 70.62;
	total_thermal_mass_per_floor_area 3.343;
	heating_system_type RESISTANCE;
	cooling_system_type NONE;
	breaker_amps 1000;
	hvac_breaker_rating 1000;
	hvac_power_factor 0.97;
	fan_type ONE_SPEED;
	number_of_doors 2;
	thermostat_deadband 0.001;
	dlc_offset 100;
	cooling_setpoint 81.91;
	heating_setpoint 78.91;
	object controller {
		schedule_skew 959;
		bid_delay 1;
		name controller_25;
		market Market_1;
		use_override ON;
		override override;
		bid_mode ON;
		control_mode RAMP;
		range_high -3.407;
		range_low -0.005;
		ramp_high -2.319;
		ramp_low -2.319;
		base_setpoint heating2*0.67+63.40;
		period 300;
		average_target current_price_mean_24h;
		standard_deviation_target current_price_stdev_24h;
		target air_temperature;
		setpoint heating_setpoint;
		demand last_heating_load;
		deadband thermostat_deadband;
		total hvac_load;
		load hvac_load;
		state power_state;
	};
	object ZIPload {
		// Unresponsive load
		name house_25_unresp_load;
		schedule_skew 959;
		base_power unresponsive_loads*1.28;
		heatgain_fraction 0.900;
		power_pf 1.000;
		current_pf 1.000;
		impedance_pf 1.000;
		impedance_fraction 0.200000;
		current_fraction 0.400000;
		power_fraction 0.400000;
	};
	object waterheater {
		schedule_skew -1728;
		heating_element_capacity 5.0 kW;
		tank_setpoint 120.7;
		temperature 132;
		thermostat_deadband 5.8;
		location INSIDE;
		tank_UA 3.6;
		demand large_5*0.98;
		tank_volume 70;
	};
}

object house {
	name house_26;
	parent trip_meter_BS;
	groupid Residential;
	schedule_skew -1990;
	floor_area 357;
	number_of_stories 1;
	ceiling_height 8;
	over_sizing_factor 0.1;
	//Thermal integrity -> Single Family 4
	Rroof 35.24;
	Rwall 15.85;
	Rfloor 16.78;
	glazing_layers 2;
	glass_type 1;
	glazing_treatment 1;
	window_frame 2;
	Rdoors 2.57;
	Rwindows 1.81;
	airchange_per_hour 0.51;
	cooling_COP 2.9;
	air_temperature 71.27;
	mass_temperature 71.27;
	total_thermal_mass_per_floor_area 3.511;
	heating_system_type RESISTANCE;
	cooling_system_type ELECTRIC;
	motor_model BASIC;
	motor_efficiency GOOD;
	breaker_amps 1000;
	hvac_breaker_rating 1000;
	hvac_power_factor 0.97;
	fan_type ONE_SPEED;
	number_of_doors 2;
	thermostat_deadband 0.001;
	dlc_offset 100;
	cooling_setpoint 79.89;
	heating_setpoint 76.89;
	object controller {
		schedule_skew -1990;
		bid_delay 1;
		name controller_26;
		market Market_1;
		use_override ON;
		override override;
		bid_mode ON;
		control_mode DOUBLE_RAMP;
		resolve_mode DEADBAND;
		heating_range_high -1.938;
		cooling_range_high 1.938;
		heating_range_low -0.005;
		cooling_range_low -0.005;
		heating_ramp_high -2.612;
		cooling_ramp_high 2.612;
		heating_ramp_low -2.612;
		cooling_ramp_low 2.612;
		cooling_base_setpoint cooling2*1.51+79.89;
		heating_base_setpoint heating2*0.27+69.00;
		period 300;
		average_target current_price_mean_24h;
		standard_deviation_target current_price_stdev_24h;
		target air_temperature;
		heating_setpoint heating_setpoint;
		heating_demand last_heating_load;
		cooling_setpoint cooling_setpoint;
		cooling_demand last_cooling_load;
		deadband thermostat_deadband;
		total hvac_load;
		load hvac_load;
		state power_state;
	};
	object ZIPload {
		// Unresponsive load
		name house_26_unresp_load;
		schedule_skew -1990;
		base_power unresponsive_loads*0.42;
		heatgain_fraction 0.900;
		power_pf 1.000;
		current_pf 1.000;
		impedance_pf 1.000;
		impedance_fraction 0.200000;
		current_fraction 0.400000;
		power_fraction 0.400000;
	};
	object waterheater {
		schedule_skew -14173;
		heating_element_capacity 4.0 kW;
		tank_setpoint 132.4;
		temperature 132;
		thermostat_deadband 4.4;
		location INSIDE;
		tank_UA 2.6;
		demand large_2*1.01;
		tank_volume 50;
	};
}

object house {
	name house_27;
	parent trip_meter_CS;
	groupid Residential;
	schedule_skew -450;
	floor_area 378;
	number_of_stories 1;
	ceiling_height 8;
	over_sizing_factor 0.1;
	//Thermal integrity -> Apartment 3
	Rroof 33.05;
	Rwall 13.61;
	Rfloor 13.99;
	glazing_layers 2;
	glass_type 2;
	glazing_treatment 3;
	window_frame 4;
	Rdoors 7.27;
	Rwindows 1.81;
	airchange_per_hour 0.12;
	cooling_COP 2.5;
	air_temperature 70.65;
	mass_temperature 70.65;
	total_thermal_mass_per_floor_area 3.101;
	heating_system_type RESISTANCE;
	cooling_system_type NONE;
	breaker_amps 1000;
	hvac_breaker_rating 1000;
	hvac_power_factor 0.97;
	fan_type ONE_SPEED;
	number_of_doors 2;
	thermostat_deadband 0.001;
	dlc_offset 100;
	cooling_setpoint 72.11;
	heating_setpoint 69.11;
	object controller {
		schedule_skew -450;
		bid_delay 1;
		name controller_27;
		market Market_1;
		use_override ON;
		override override;
...